/*--------------------------------*- C++ -*----------------------------------*\
  =========                 |
  \\      /  F ield         | OpenFOAM: The Open Source CFD Toolbox
   \\    /   O peration     | Website:  https://www.openfoam.com
    \\  /    A nd           | Version:  2506
     \\/     M anipulation  |
\*---------------------------------------------------------------------------*/
FoamFile
{
    format      ascii;
    class       dictionary;
    object      fvSchemes;
}
// * * * * * * * * * * * * * * * * * * * * * * * * * * * * * * * * * * * * * //

ddtSchemes
{
    default             steadyState;
}

gradSchemes
{
    default             Gauss linear;
    grad(p)             Gauss linear;  // or "cellLimited Gauss linear 1"
}

divSchemes
{
    default             none;
    div(phi,U)          bounded Gauss linearUpwind grad(U);  // Keep this
    div(phi,epsilon)    bounded Gauss upwind;                // Keep 1st order
    div(phi,k)          bounded Gauss upwind;                // Keep 1st order
    div((nuEff*dev2(T(grad(U)))))    Gauss linear;

}

laplacianSchemes
{
    default             Gauss linear limited corrected 0.33;
}

interpolationSchemes
{
    default             linear;
}

snGradSchemes
{
    default             limited corrected 0.33;
}


// ************************************************************************* //