/*--------------------------------*- C++ -*----------------------------------*\
  =========                 |
  \\      /  F ield         | OpenFOAM: The Open Source CFD Toolbox
   \\    /   O peration     | Website:  https://www.openfoam.com
    \\  /    A nd           | Version:  2506
     \\/     M anipulation  |
\*---------------------------------------------------------------------------*/
FoamFile
{
    format      ascii;
    class       dictionary;
    object      fvSchemes;
}
// * * * * * * * * * * * * * * * * * * * * * * * * * * * * * * * * * * * * * //

ddtSchemes
{
    default             steadyState;
}

gradSchemes
{
    default     cellLimited Gauss linear 1;
    grad(p)     cellLimited Gauss linear 1;
}

divSchemes
{
    default             none;
    div(phi,U)          bounded Gauss upwind;
    div(phi,epsilon)    bounded Gauss upwind;
    div(phi,k)           bounded Gauss upwind;

    div((nuEff*dev2(T(grad(U))))) Gauss linear;
}

laplacianSchemes
{
    default             Gauss linear limited corrected 0.50;
}

interpolationSchemes
{
    default             linear;
}

snGradSchemes
{
    default             limited corrected 0.50;
}


// ************************************************************************* //